
     RDKit          3D

 13 13  0  0  0  0  0  0  0  0999 V2000
    3.2810    8.5240   -3.5790 N   0  0  0  0  0  0  0  0  0  0  0  0
    4.0410    9.7610   -3.4010 C   0  0  2  0  0  0  0  0  0  0  0  0
    3.2890   10.9820   -2.8690 C   0  0  0  0  0  0  0  0  0  0  0  0
    2.2900   11.4410   -3.4590 O   0  0  0  0  0  0  0  0  0  0  0  0
    4.8010   10.1330   -4.7070 C   0  0  0  0  0  0  0  0  0  0  0  0
    5.6040   11.3970   -4.5240 C   0  0  0  0  0  0  0  0  0  0  0  0
    6.6380   11.4330   -3.5960 C   0  0  0  0  0  0  0  0  0  0  0  0
    5.3480   12.5640   -5.2510 C   0  0  0  0  0  0  0  0  0  0  0  0
    7.3980   12.5910   -3.4240 C   0  0  0  0  0  0  0  0  0  0  0  0
    6.0910   13.7310   -5.0680 C   0  0  0  0  0  0  0  0  0  0  0  0
    7.1340   13.7490   -4.1460 C   0  0  0  0  0  0  0  0  0  0  0  0
    7.8940   14.8720   -3.9620 O   0  0  0  0  0  0  0  0  0  0  0  0
    8.3890   12.5820   -2.5540 F   0  0  0  0  0  0  0  0  0  0  0  0
  2  1  1  6
  3  2  1  0
  4  3  1  0
  5  2  1  0
  6  5  1  0
  7  6  1  0
  8  6  1  0
  9  7  1  0
 10  8  1  0
 11 10  1  0
 11  9  1  0
 12 11  1  0
 13  9  1  0
M  END
