
     RDKit          3D

 26 27  0  0  0  0  0  0  0  0999 V2000
  -59.1090   -6.9140   16.8990 C   0  0  2  0  0  0  0  0  0  0  0  0
  -60.3320   -6.6110   17.5810 O   0  0  0  0  0  0  0  0  0  0  0  0
  -58.1530   -5.7140   16.9790 C   0  0  2  0  0  0  0  0  0  0  0  0
  -57.8880   -5.3700   18.3860 N   0  0  0  0  0  0  0  0  0  0  0  0
  -58.7540   -4.5060   16.2940 C   0  0  1  0  0  0  0  0  0  0  0  0
  -57.7800   -3.4630   16.3910 O   0  0  0  0  0  0  0  0  0  0  0  0
  -59.0490   -4.8700   14.8240 C   0  0  1  0  0  0  0  0  0  0  0  0
  -57.8010   -5.1930   14.2030 O   0  0  0  0  0  0  0  0  0  0  0  0
  -59.9470   -6.1220   14.7900 C   0  0  2  0  0  0  0  0  0  0  0  0
  -59.3550   -7.2480   15.5010 O   0  0  0  0  0  0  0  0  0  0  0  0
  -60.1910   -6.5560   13.3190 C   0  0  0  0  0  0  0  0  0  0  0  0
  -61.1500   -7.6250   13.3050 O   0  0  0  0  0  0  0  0  0  0  0  0
  -56.7380   -5.6530   18.9890 C   0  0  0  0  0  0  0  0  0  0  0  0
  -55.7940   -6.2380   18.4670 O   0  0  0  0  0  0  0  0  0  0  0  0
  -56.6770   -5.2240   20.4460 C   0  0  0  0  0  0  0  0  0  0  0  0
  -58.3340   -2.2020   16.7370 C   0  0  1  0  0  0  0  0  0  0  0  0
  -57.1950   -1.2490   17.0890 C   0  0  2  0  0  0  0  0  0  0  0  0
  -56.5000   -1.7140   18.2320 O   0  0  0  0  0  0  0  0  0  0  0  0
  -57.8050    0.1230   17.3640 C   0  0  1  0  0  0  0  0  0  0  0  0
  -56.8220    1.1030   17.6250 O   0  0  0  0  0  0  0  0  0  0  0  0
  -58.7140    0.5840   16.2340 C   0  0  1  0  0  0  0  0  0  0  0  0
  -57.9750    0.9540   15.0880 O   0  0  0  0  0  0  0  0  0  0  0  0
  -59.7560   -0.4880   15.9270 C   0  0  2  0  0  0  0  0  0  0  0  0
  -59.1070   -1.7190   15.6530 O   0  0  0  0  0  0  0  0  0  0  0  0
  -60.6210   -0.0880   14.7370 C   0  0  0  0  0  0  0  0  0  0  0  0
  -61.7250   -0.9670   14.7030 O   0  0  0  0  0  0  0  0  0  0  0  0
  1  2  1  6
  1  3  1  0
  1 10  1  0
  3  4  1  1
  3  5  1  0
  4 13  1  0
  5  6  1  6
  5  7  1  0
 16  6  1  6
  7  8  1  6
  7  9  1  0
  9 11  1  6
  9 10  1  0
 11 12  1  0
 13 14  1  0
 13 15  1  0
 16 17  1  0
 16 24  1  0
 17 18  1  1
 17 19  1  0
 19 20  1  6
 19 21  1  0
 21 22  1  6
 21 23  1  0
 23 24  1  0
 23 25  1  6
 25 26  1  0
M  END
