
     RDKit          3D

 16 15  0  0  0  0  0  0  0  0999 V2000
   27.3270   45.4060   34.0220 P   0  0  0  0  0  0  0  0  0  0  0  0
   27.7130   45.1120   32.6310 O   0  0  0  0  0  0  0  0  0  0  0  0
   27.7820   44.4080   35.0570 O   0  0  0  0  0  0  0  0  0  0  0  0
   25.7950   45.5690   34.1100 O   0  0  0  0  0  0  0  0  0  0  0  0
   27.9630   47.0290   34.5390 C   0  0  0  0  0  0  0  0  0  0  0  0
   27.8810   48.0360   33.4600 C   0  0  0  0  0  0  0  0  0  0  0  0
   26.7790   48.5540   33.1560 O   0  0  0  0  0  0  0  0  0  0  0  0
   29.0130   48.3420   32.8400 N   0  0  0  0  0  0  0  0  0  0  0  0
   29.1070   49.3410   31.8240 C   0  0  2  0  0  0  0  0  0  0  0  0
   28.4720   49.0340   30.5200 C   0  0  0  0  0  0  0  0  0  0  0  0
   27.8700   47.9370   30.2930 O   0  0  0  0  0  0  0  0  0  0  0  0
   28.4580   49.8630   29.6090 O   0  0  0  0  0  0  0  0  0  0  0  0
   30.6430   49.7010   31.6260 C   0  0  0  0  0  0  0  0  0  0  0  0
   31.4690   48.5470   31.0890 C   0  0  0  0  0  0  0  0  0  0  0  0
   32.7520   48.6370   31.1840 O   0  0  0  0  0  0  0  0  0  0  0  0
   30.8860   47.5570   30.5710 O   0  0  0  0  0  0  0  0  0  0  0  0
  2  1  1  0
  3  1  1  0
  4  1  1  0
  5  1  1  0
  6  5  1  0
  7  6  1  0
  8  6  1  0
  9  8  1  0
 10  9  1  0
 11 10  1  0
 12 10  1  0
  9 13  1  6
 14 13  1  0
 15 14  1  0
 16 14  1  0
M  END
