
     RDKit          3D

 11 10  0  0  0  0  0  0  0  0999 V2000
    6.5340   37.8790   32.7660 N   0  0  0  0  0  0  0  0  0  0  0  0
    7.0370   38.5970   31.6030 C   0  0  1  0  0  0  0  0  0  0  0  0
    8.1520   39.5950   31.9310 C   0  0  0  0  0  0  0  0  0  0  0  0
    9.6100   39.1740   32.0010 C   0  0  0  0  0  0  0  0  0  0  0  0
   10.1030   39.7500   33.3140 C   0  0  0  0  0  0  0  0  0  0  0  0
   10.2080   38.5630   34.3450 C   0  0  0  0  0  0  0  0  0  0  0  0
   11.5990   38.1900   34.4900 N   0  0  0  0  0  0  0  0  0  0  0  0
   11.8020   36.8110   34.0520 C   0  0  0  0  0  0  0  0  0  0  0  0
   11.7940   38.2230   35.9600 C   0  0  0  0  0  0  0  0  0  0  0  0
    7.3860   37.6390   30.4770 C   0  0  0  0  0  0  0  0  0  0  0  0
    7.7960   36.5020   30.7370 O   0  0  0  0  0  0  0  0  0  0  0  0
  2  1  1  1
  3  2  1  0
  4  3  1  0
  5  4  1  0
  6  5  1  0
  7  6  1  0
  8  7  1  0
  9  7  1  0
 10  2  1  0
 11 10  1  0
M  END
