
     RDKit          3D

 23 24  0  0  0  0  0  0  0  0999 V2000
  132.0070   55.1620  -54.7560 C   0  0  2  0  0  0  0  0  0  0  0  0
  130.6630   55.1740  -53.9550 C   0  0  2  0  0  0  0  0  0  0  0  0
  129.6230   55.4560  -54.8420 O   0  0  0  0  0  0  0  0  0  0  0  0
  130.7820   56.3090  -52.8750 C   0  0  1  0  0  0  0  0  0  0  0  0
  129.6130   56.3640  -52.1260 O   0  0  0  0  0  0  0  0  0  0  0  0
  131.9430   55.9040  -51.9450 C   0  0  2  0  0  0  0  0  0  0  0  0
  132.1500   56.8440  -50.9460 O   0  0  0  0  0  0  0  0  0  0  0  0
  133.2780   55.8210  -52.7530 C   0  0  2  0  0  0  0  0  0  0  0  0
  133.1620   54.8860  -53.8560 O   0  0  0  0  0  0  0  0  0  0  0  0
  134.4780   55.4000  -51.9460 C   0  0  0  0  0  0  0  0  0  0  0  0
  135.5990   55.3490  -52.8050 O   0  0  0  0  0  0  0  0  0  0  0  0
  133.2560   56.7710  -56.1820 C   0  0  2  0  0  0  0  0  0  0  0  0
  132.1070   56.4110  -55.3790 O   0  0  0  0  0  0  0  0  0  0  0  0
  133.9470   58.0540  -56.6800 C   0  0  2  0  0  0  0  0  0  0  0  0
  134.1170   58.8650  -55.5660 O   0  0  0  0  0  0  0  0  0  0  0  0
  132.8940   58.7570  -57.6620 C   0  0  1  0  0  0  0  0  0  0  0  0
  133.4120   59.9460  -58.1410 O   0  0  0  0  0  0  0  0  0  0  0  0
  132.7570   57.8080  -58.8780 C   0  0  2  0  0  0  0  0  0  0  0  0
  131.8480   58.3500  -59.8490 O   0  0  0  0  0  0  0  0  0  0  0  0
  132.1590   56.4090  -58.3790 C   0  0  2  0  0  0  0  0  0  0  0  0
  133.0590   55.8750  -57.3630 O   0  0  0  0  0  0  0  0  0  0  0  0
  132.0370   55.4130  -59.5300 C   0  0  0  0  0  0  0  0  0  0  0  0
  133.3350   54.9670  -59.8940 O   0  0  0  0  0  0  0  0  0  0  0  0
  1  2  1  0
  1  9  1  0
  1 13  1  1
  2  3  1  6
  2  4  1  0
  4  5  1  1
  4  6  1  0
  6  7  1  1
  6  8  1  0
  8  9  1  0
  8 10  1  1
 10 11  1  0
 12 13  1  6
 12 14  1  0
 12 21  1  0
 14 15  1  1
 14 16  1  0
 16 17  1  6
 16 18  1  0
 18 19  1  6
 18 20  1  0
 20 21  1  0
 20 22  1  6
 22 23  1  0
M  END
