
     RDKit          3D

 20 21  0  0  0  0  0  0  0  0999 V2000
   17.8300   20.3110   31.1420 N   0  0  0  0  0  0  0  0  0  0  0  0
   18.6180   20.1480   32.2900 C   0  0  0  0  0  0  0  0  0  0  0  0
   19.4650   19.0640   32.2960 N   0  0  0  0  0  0  0  0  0  0  0  0
   19.7110   18.2170   31.2300 C   0  0  0  0  0  0  0  0  0  0  0  0
   18.8910   18.3340   29.9480 C   0  0  0  0  0  0  0  0  0  0  0  0
   18.1560   19.6800   29.8200 C   0  0  0  0  0  0  0  0  0  0  0  0
   18.5850   20.9240   33.2490 O   0  0  0  0  0  0  0  0  0  0  0  0
   20.5960   17.3670   31.3360 O   0  0  0  0  0  0  0  0  0  0  0  0
   16.6110   21.1590   31.1800 C   0  0  1  0  0  0  0  0  0  0  0  0
   16.8660   22.6100   30.7630 C   0  0  0  0  0  0  0  0  0  0  0  0
   15.4790   23.0510   30.3260 C   0  0  1  0  0  0  0  0  0  0  0  0
   14.9060   21.8790   29.5050 C   0  0  2  0  0  0  0  0  0  0  0  0
   14.7360   23.2640   31.5510 O   0  0  0  0  0  0  0  0  0  0  0  0
   15.5600   20.7660   30.2060 O   0  0  0  0  0  0  0  0  0  0  0  0
   15.4640   21.8550   28.0840 C   0  0  0  0  0  0  0  0  0  0  0  0
   14.7510   22.8710   27.3300 O   0  0  0  0  0  0  0  0  0  0  0  0
   15.3810   24.0250   26.4710 P   0  0  0  0  0  0  0  0  0  0  0  0
   14.2960   24.7920   25.8240 O   0  0  0  0  0  0  0  0  0  0  0  0
   16.1800   24.9380   27.3210 O   0  0  0  0  0  0  0  0  0  0  0  0
   16.2220   23.3940   25.4810 O   0  0  0  0  0  0  0  0  0  0  0  0
  2  1  1  0
  3  2  1  0
  4  3  1  0
  5  4  1  0
  6  5  1  0
  6  1  1  0
  7  2  1  0
  8  4  1  0
  9  1  1  6
 10  9  1  0
 11 10  1  0
 12 11  1  0
 11 13  1  1
 14 12  1  0
 14  9  1  0
 12 15  1  6
 16 15  1  0
 17 16  1  0
 18 17  1  0
 19 17  1  0
 20 17  1  0
M  END
