
     RDKit          3D

 16 17  0  0  0  0  0  0  0  0999 V2000
   17.5800   19.2980   31.5830 C   0  0  0  0  0  0  0  0  0  0  0  0
   18.3440   20.1310   31.0260 O   0  0  0  0  0  0  0  0  0  0  0  0
   16.3820   19.1300   31.2620 O   0  0  0  0  0  0  0  0  0  0  0  0
   18.2140   18.4710   32.6480 C   0  0  0  0  0  0  0  0  0  0  0  0
   19.6750   18.1690   32.2560 C   0  0  0  0  0  0  0  0  0  0  0  0
   19.6780   17.0250   31.2290 C   0  0  0  0  0  0  0  0  0  0  0  0
   21.1010   16.7010   30.6990 C   0  0  0  0  0  0  0  0  0  0  0  0
   21.1970   15.6630   29.6050 C   0  0  2  0  0  0  0  0  0  0  0  0
   20.4740   14.0040   29.9520 S   0  0  0  0  0  0  0  0  0  0  0  0
   21.1850   13.4210   28.3850 C   0  0  0  0  0  0  0  0  0  0  0  0
   22.5740   14.0190   28.2790 C   0  0  2  0  0  0  0  0  0  0  0  0
   23.6050   13.2520   28.9340 N   0  0  0  0  0  0  0  0  0  0  0  0
   24.1530   13.9150   29.9720 C   0  0  0  0  0  0  0  0  0  0  0  0
   25.0690   13.4980   30.7110 O   0  0  0  0  0  0  0  0  0  0  0  0
   23.5880   15.1410   30.0730 N   0  0  0  0  0  0  0  0  0  0  0  0
   22.5750   15.3580   29.0520 C   0  0  2  0  0  0  0  0  0  0  0  0
  2  1  1  0
  3  1  1  0
  4  1  1  0
  5  4  1  0
  6  5  1  0
  7  6  1  0
  8  7  1  1
  9  8  1  0
 10  9  1  0
 11 10  1  1
 12 11  1  0
 13 12  1  0
 14 13  1  0
 15 13  1  0
 16  8  1  0
 16 15  1  1
 16 11  1  0
M  END
