
     RDKit          3D

 21 22  0  0  0  0  0  0  0  0999 V2000
   43.2970   52.4800  128.3090 N   0  0  0  0  0  0  0  0  0  0  0  0
   43.4770   51.0280  128.5300 C   0  0  0  0  0  0  0  0  0  0  0  0
   44.7190   50.6930  129.1090 N   0  0  0  0  0  0  0  0  0  0  0  0
   45.7870   51.5680  129.4810 C   0  0  0  0  0  0  0  0  0  0  0  0
   45.5580   52.9810  129.2200 C   0  0  0  0  0  0  0  0  0  0  0  0
   44.3810   53.3560  128.6810 C   0  0  0  0  0  0  0  0  0  0  0  0
   42.6590   50.1600  128.2530 O   0  0  0  0  0  0  0  0  0  0  0  0
   46.8110   51.1020  129.9650 O   0  0  0  0  0  0  0  0  0  0  0  0
   47.0030   54.1690  129.6420 Br  0  0  0  0  0  0  0  0  0  0  0  0
   42.0450   53.0500  127.7000 C   0  0  1  0  0  0  0  0  0  0  0  0
   41.0820   52.7870  128.9290 C   0  0  0  0  0  0  0  0  0  0  0  0
   40.1390   54.0590  128.8920 C   0  0  1  0  0  0  0  0  0  0  0  0
   41.0130   55.2450  128.4530 C   0  0  2  0  0  0  0  0  0  0  0  0
   39.1450   53.8800  127.8920 O   0  0  0  0  0  0  0  0  0  0  0  0
   41.9750   54.5430  127.5330 O   0  0  0  0  0  0  0  0  0  0  0  0
   41.7730   55.9350  129.6360 C   0  0  0  0  0  0  0  0  0  0  0  0
   42.2430   54.9380  130.6000 O   0  0  0  0  0  0  0  0  0  0  0  0
   43.0350   55.2260  131.9070 P   0  0  0  0  0  0  0  0  0  0  0  0
   43.0260   53.9740  132.7090 O   0  0  0  0  0  0  0  0  0  0  0  0
   44.4150   55.5690  131.5770 O   0  0  0  0  0  0  0  0  0  0  0  0
   42.4270   56.3150  132.6830 O   0  0  0  0  0  0  0  0  0  0  0  0
  2  1  1  0
  3  2  1  0
  4  3  1  0
  5  4  1  0
  6  1  1  0
  6  5  1  0
  7  2  1  0
  8  4  1  0
  9  5  1  0
 10  1  1  1
 11 10  1  0
 12 11  1  0
 13 12  1  0
 12 14  1  6
 15 10  1  0
 15 13  1  0
 13 16  1  1
 17 16  1  0
 18 17  1  0
 19 18  1  0
 20 18  1  0
 21 18  1  0
M  END
