
     RDKit          3D

 33 35  0  0  0  0  0  0  0  0999 V2000
   50.2040    2.1310   -1.6490 C   0  0  2  0  0  0  0  0  0  0  0  0
   50.4090    0.6840   -1.5200 O   0  0  0  0  0  0  0  0  0  0  0  0
   50.9120    3.0240   -0.5900 C   0  0  2  0  0  0  0  0  0  0  0  0
   52.3400    3.0370   -0.6630 O   0  0  0  0  0  0  0  0  0  0  0  0
   50.4950    2.5360    0.8120 C   0  0  1  0  0  0  0  0  0  0  0  0
   50.9900    3.4940    1.7290 O   0  0  0  0  0  0  0  0  0  0  0  0
   48.9310    2.6760    0.8520 C   0  0  1  0  0  0  0  0  0  0  0  0
   48.5540    4.0360    0.9380 O   0  0  0  0  0  0  0  0  0  0  0  0
   48.2460    1.9190   -0.2960 C   0  0  2  0  0  0  0  0  0  0  0  0
   48.7850    2.3660   -1.5640 O   0  0  0  0  0  0  0  0  0  0  0  0
   46.7090    2.0260   -0.3230 C   0  0  0  0  0  0  0  0  0  0  0  0
   46.1300    1.0970   -1.2100 O   0  0  0  0  0  0  0  0  0  0  0  0
   50.1220   -0.0160   -2.7540 C   0  0  0  0  0  0  0  0  0  0  0  0
   50.9800    0.0950   -3.8470 C   0  0  0  0  0  0  0  0  0  0  0  0
   50.6490   -0.6100   -5.0190 C   0  0  0  0  0  0  0  0  0  0  0  0
   49.4520   -1.3980   -4.9680 C   0  0  0  0  0  0  0  0  0  0  0  0
   48.5990   -1.4910   -3.8490 C   0  0  0  0  0  0  0  0  0  0  0  0
   48.9510   -0.7620   -2.6760 C   0  0  0  0  0  0  0  0  0  0  0  0
   51.3940   -0.6530   -6.2170 N   0  0  0  0  0  0  0  0  0  0  0  0
   50.8480   -1.3250   -7.1610 O   0  0  0  0  0  0  0  0  0  0  0  0
   52.5260   -0.1370   -6.3440 O   0  0  0  0  0  0  0  0  0  0  0  0
   47.3860   -2.2250   -3.7440 C   0  0  0  0  0  0  0  0  0  0  0  0
   46.9910   -2.3330   -2.5240 O   0  0  0  0  0  0  0  0  0  0  0  0
   46.7440   -2.6570   -4.7090 N   0  0  0  0  0  0  0  0  0  0  0  0
   48.1190   -8.6530   -4.0990 O   0  0  0  0  0  0  0  0  0  0  0  0
   49.2480   -7.8630   -4.3650 C   0  0  0  0  0  0  0  0  0  0  0  0
   49.1440   -6.5630   -5.1240 C   0  0  0  0  0  0  0  0  0  0  0  0
   47.8810   -6.2430   -5.8710 N   0  0  0  0  0  0  0  0  0  0  0  0
   46.8980   -7.3800   -5.8230 C   0  0  0  0  0  0  0  0  0  0  0  0
   46.8440   -8.1320   -4.4960 C   0  0  0  0  0  0  0  0  0  0  0  0
   47.2470   -4.9070   -5.6470 C   0  0  0  0  0  0  0  0  0  0  0  0
   47.3240   -3.8610   -6.7500 C   0  0  0  0  0  0  0  0  0  0  0  0
   46.8690   -2.5160   -6.1120 C   0  0  0  0  0  0  0  0  0  0  0  0
  1  2  1  1
  3  1  1  0
  3  4  1  1
  5  3  1  0
  5  6  1  1
  7  5  1  0
  7  8  1  6
  9  7  1  0
 10  9  1  0
 10  1  1  0
  9 11  1  6
 12 11  1  0
 13  2  1  0
 14 13  1  0
 15 14  1  0
 16 15  1  0
 17 16  1  0
 18 17  1  0
 18 13  1  0
 19 15  1  0
 20 19  1  0
 21 19  1  0
 22 17  1  0
 23 22  1  0
 24 22  1  0
 26 25  1  0
 27 26  1  0
 28 27  1  0
 29 28  1  0
 30 29  1  0
 30 25  1  0
 31 28  1  0
 32 31  1  0
 33 32  1  0
 33 24  1  0
M  END
