
     RDKit          3D

 17 18  0  0  0  0  0  0  0  0999 V2000
    8.3080   11.7410   42.8980 N   0  0  0  0  0  0  0  0  0  0  0  0
    8.2450   12.0670   41.5840 C   0  0  0  0  0  0  0  0  0  0  0  0
    7.4070   11.4850   40.7370 N   0  0  0  0  0  0  0  0  0  0  0  0
    9.0820   13.0370   41.1300 N   0  0  0  0  0  0  0  0  0  0  0  0
   10.0200   13.7340   41.9250 C   0  0  0  0  0  0  0  0  0  0  0  0
   10.7250   14.5960   41.3920 O   0  0  0  0  0  0  0  0  0  0  0  0
   10.0250   13.3380   43.2860 C   0  0  0  0  0  0  0  0  0  0  0  0
    9.1840   12.3490   43.7750 C   0  0  0  0  0  0  0  0  0  0  0  0
   10.9750   14.0160   44.1730 N   0  0  0  0  0  0  0  0  0  0  0  0
    9.1800   11.9690   45.0580 N   0  0  0  0  0  0  0  0  0  0  0  0
   11.3510   13.2050   45.4150 C   0  0  2  0  0  0  0  0  0  0  0  0
   10.0930   12.5860   46.0390 C   0  0  0  0  0  0  0  0  0  0  0  0
   12.1530   14.1670   46.3350 C   0  0  1  0  0  0  0  0  0  0  0  0
   11.4560   15.3620   46.6880 O   0  0  0  0  0  0  0  0  0  0  0  0
   12.6110   13.4720   47.6420 C   0  0  2  0  0  0  0  0  0  0  0  0
   13.5630   14.3220   48.4240 C   0  0  0  0  0  0  0  0  0  0  0  0
   13.2760   12.2790   47.1930 O   0  0  0  0  0  0  0  0  0  0  0  0
  2  1  1  0
  3  2  1  0
  4  2  1  0
  5  4  1  0
  6  5  1  0
  7  5  1  0
  8  7  1  0
  8  1  1  0
  9  7  1  0
 10  8  1  0
 11  9  1  0
 12 10  1  0
 11 12  1  1
 13 11  1  0
 13 14  1  1
 15 13  1  0
 15 16  1  6
 17 15  1  0
M  END
