
     RDKit          3D

 17 18  0  0  0  0  0  0  0  0999 V2000
    2.6450    6.8540   56.5540 N   0  0  0  0  0  0  0  0  0  0  0  0
    2.0710    6.9900   57.7720 C   0  0  0  0  0  0  0  0  0  0  0  0
    2.2320    8.0750   58.5150 N   0  0  0  0  0  0  0  0  0  0  0  0
    1.3030    5.9580   58.2370 N   0  0  0  0  0  0  0  0  0  0  0  0
    1.0610    4.7490   57.5330 C   0  0  0  0  0  0  0  0  0  0  0  0
    0.3520    3.8800   58.0500 O   0  0  0  0  0  0  0  0  0  0  0  0
    1.7010    4.6840   56.2790 C   0  0  0  0  0  0  0  0  0  0  0  0
    2.4750    5.7300   55.7770 C   0  0  0  0  0  0  0  0  0  0  0  0
    1.4980    3.4590   55.4900 N   0  0  0  0  0  0  0  0  0  0  0  0
    3.0840    5.6780   54.5870 N   0  0  0  0  0  0  0  0  0  0  0  0
    2.6110    3.2120   54.4590 C   0  0  2  0  0  0  0  0  0  0  0  0
    2.9380    4.5060   53.7090 C   0  0  0  0  0  0  0  0  0  0  0  0
    2.1280    2.0340   53.5720 C   0  0  1  0  0  0  0  0  0  0  0  0
    0.8630    2.2340   52.9460 O   0  0  0  0  0  0  0  0  0  0  0  0
    3.1460    1.6770   52.4710 C   0  0  2  0  0  0  0  0  0  0  0  0
    2.7750    0.4040   51.7760 C   0  0  0  0  0  0  0  0  0  0  0  0
    4.3840    1.5240   53.1660 O   0  0  0  0  0  0  0  0  0  0  0  0
  2  1  1  0
  3  2  1  0
  4  2  1  0
  5  4  1  0
  6  5  1  0
  7  5  1  0
  8  7  1  0
  8  1  1  0
  9  7  1  0
 10  8  1  0
 11  9  1  0
 11 12  1  6
 12 10  1  0
 13 11  1  0
 13 14  1  6
 15 13  1  0
 15 16  1  1
 17 15  1  0
M  END
