
     RDKit          3D

 28 30  0  0  0  0  0  0  0  0999 V2000
   37.7850   30.1660   98.4270 P   0  0  0  0  0  0  0  0  0  0  0  0
   38.7680   29.0740   98.7800 O   0  0  0  0  0  0  0  0  0  0  0  0
   36.5860   29.4860   97.8510 O   0  0  0  0  0  0  0  0  0  0  0  0
   37.4250   30.8870   99.6020 O   0  0  0  0  0  0  0  0  0  0  0  0
   38.6630   30.9850   97.3440 O   0  0  0  0  0  0  0  0  0  0  0  0
   39.4150   32.3340   97.2100 P   0  0  0  0  0  0  0  0  0  0  0  0
   40.6780   32.5270   97.9310 O   0  0  0  0  0  0  0  0  0  0  0  0
   39.5590   32.4430   95.7100 O   0  0  0  0  0  0  0  0  0  0  0  0
   38.2770   33.3220   97.6800 O   0  0  0  0  0  0  0  0  0  0  0  0
   37.5940   33.8950   96.5460 C   0  0  0  0  0  0  0  0  0  0  0  0
   37.5880   35.3670   96.3100 C   0  0  1  0  0  0  0  0  0  0  0  0
   37.5930   36.1020   97.5550 O   0  0  0  0  0  0  0  0  0  0  0  0
   38.6840   35.9430   95.4550 C   0  0  1  0  0  0  0  0  0  0  0  0
   38.2180   36.9100   94.5030 O   0  0  0  0  0  0  0  0  0  0  0  0
   39.5910   36.6220   96.4600 C   0  0  1  0  0  0  0  0  0  0  0  0
   40.3110   37.6490   95.8200 O   0  0  0  0  0  0  0  0  0  0  0  0
   38.5320   37.1760   97.4840 C   0  0  2  0  0  0  0  0  0  0  0  0
   39.1820   37.4440   98.7800 N   0  0  0  0  0  0  0  0  0  0  0  0
   39.7240   36.4610   99.6250 C   0  0  0  0  0  0  0  0  0  0  0  0
   40.2660   36.9250  100.7090 N   0  0  0  0  0  0  0  0  0  0  0  0
   40.1630   38.3030  100.5400 C   0  0  2  0  0  0  0  0  0  0  0  0
   40.5560   39.3160  101.4330 C   0  0  2  0  0  0  0  0  0  0  0  0
   41.0360   39.1690  102.5630 O   0  0  0  0  0  0  0  0  0  0  0  0
   40.2360   40.5660  100.9230 N   0  0  0  0  0  0  0  0  0  0  0  0
   39.5460   40.8010   99.7370 C   0  0  0  0  0  0  0  0  0  0  0  0
   39.3310   42.0990   99.4790 N   0  0  0  0  0  0  0  0  0  0  0  0
   39.1510   39.8470   98.9360 N   0  0  0  0  0  0  0  0  0  0  0  0
   39.4960   38.6250   99.3780 C   0  0  2  0  0  0  0  0  0  0  0  0
  2  1  1  0
  3  1  1  0
  4  1  1  0
  5  1  1  0
  6  5  1  0
  7  6  1  0
  8  6  1  0
  9  6  1  0
 10  9  1  0
 11 10  1  1
 12 11  1  0
 13 11  1  0
 13 14  1  6
 15 13  1  0
 15 16  1  6
 17 12  1  0
 17 15  1  0
 17 18  1  1
 19 18  1  0
 20 19  1  0
 21 20  1  1
 22 21  1  0
 22 23  1  1
 24 22  1  0
 25 24  1  0
 26 25  1  0
 27 25  1  0
 28 18  1  0
 28 27  1  1
 28 21  1  0
M  END
