
     RDKit          3D

 28 30  0  0  0  0  0  0  0  0999 V2000
    4.2890  -32.6850  112.7550 P   0  0  0  0  0  0  0  0  0  0  0  0
    3.2980  -33.4830  111.9250 O   0  0  0  0  0  0  0  0  0  0  0  0
    5.4970  -33.5180  112.8750 O   0  0  0  0  0  0  0  0  0  0  0  0
    4.5760  -31.4460  112.1410 O   0  0  0  0  0  0  0  0  0  0  0  0
    3.2920  -32.6510  114.0560 O   0  0  0  0  0  0  0  0  0  0  0  0
    2.6870  -31.6180  115.0350 P   0  0  0  0  0  0  0  0  0  0  0  0
    1.5370  -30.8490  114.5820 O   0  0  0  0  0  0  0  0  0  0  0  0
    2.4790  -32.5360  116.2070 O   0  0  0  0  0  0  0  0  0  0  0  0
    3.9100  -30.6500  115.2950 O   0  0  0  0  0  0  0  0  0  0  0  0
    4.3670  -30.6150  116.6580 C   0  0  0  0  0  0  0  0  0  0  0  0
    4.1630  -29.5090  117.6310 C   0  0  1  0  0  0  0  0  0  0  0  0
    4.0290  -28.2100  116.9900 O   0  0  0  0  0  0  0  0  0  0  0  0
    3.0550  -29.5920  118.6620 C   0  0  1  0  0  0  0  0  0  0  0  0
    3.5340  -29.5640  120.0330 O   0  0  0  0  0  0  0  0  0  0  0  0
    2.1550  -28.4230  118.3370 C   0  0  1  0  0  0  0  0  0  0  0  0
    1.4730  -27.9610  119.4760 O   0  0  0  0  0  0  0  0  0  0  0  0
    3.1430  -27.3740  117.7460 C   0  0  2  0  0  0  0  0  0  0  0  0
    2.4690  -26.4600  116.8120 N   0  0  0  0  0  0  0  0  0  0  0  0
    2.0610  -26.8540  115.5320 C   0  0  0  0  0  0  0  0  0  0  0  0
    1.5560  -25.8900  114.8270 N   0  0  0  0  0  0  0  0  0  0  0  0
    1.5870  -24.8030  115.6700 C   0  0  0  0  0  0  0  0  0  0  0  0
    1.1630  -23.4900  115.3860 C   0  0  2  0  0  0  0  0  0  0  0  0
    0.8760  -23.0270  114.2850 O   0  0  0  0  0  0  0  0  0  0  0  0
    1.3770  -22.6580  116.4840 N   0  0  0  0  0  0  0  0  0  0  0  0
    1.9860  -23.0760  117.6700 C   0  0  0  0  0  0  0  0  0  0  0  0
    2.0910  -22.0930  118.5600 N   0  0  0  0  0  0  0  0  0  0  0  0
    2.3900  -24.2890  117.9400 N   0  0  0  0  0  0  0  0  0  0  0  0
    2.1580  -25.1340  116.8840 C   0  0  0  0  0  0  0  0  0  0  0  0
  2  1  1  0
  3  1  1  0
  4  1  1  0
  5  1  1  0
  6  5  1  0
  7  6  1  0
  8  6  1  0
  9  6  1  0
 10  9  1  0
 11 10  1  6
 12 11  1  0
 13 11  1  0
 13 14  1  1
 15 13  1  0
 15 16  1  1
 17 15  1  0
 17 12  1  0
 17 18  1  6
 19 18  1  0
 20 19  1  0
 21 20  1  0
 22 21  1  0
 22 23  1  6
 24 22  1  0
 25 24  1  0
 26 25  1  0
 27 25  1  0
 28 27  1  0
 28 21  1  0
 28 18  1  0
M  END
